Circuit: * C:\Users\Hello\Documents\GitHub\polimarcheEV_hardware\precharge\simulazioni ltspice\Draft1.asc

WARNING: Less than two connections to node NC_02.  This node is used by S:U1:1.
WARNING: Less than two connections to node NC_04.  This node is used by S:U2:1.
Direct Newton iteration for .op point succeeded.

Date: Sat May 09 15:10:16 2020
Total elapsed time: 0.046 seconds.

tnom = 27
temp = 27
method = modified trap
totiter = 3102
traniter = 3097
tranpoints = 1254
accept = 1208
rejected = 46
matrix size = 28
fillins = 0
solver = Normal
Matrix Compiler1: 778 bytes object code size  0.3/0.2/[0.1]
Matrix Compiler2: 1.42 KB object code size  0.1/0.2/[0.1]

